/*--------------------------------*- C++ -*----------------------------------*\
  =========                 |
  \\      /  F ield         | OpenFOAM: The Open Source CFD Toolbox
   \\    /   O peration     | Website:  https://openfoam.org
    \\  /    A nd           | Version:  6
     \\/     M anipulation  |
\*---------------------------------------------------------------------------*/
FoamFile
{
    version     2.0;
    format      ascii;
    class       dictionary;
    location    "system";
    object      fvSchemes;
}
// * * * * * * * * * * * * * * * * * * * * * * * * * * * * * * * * * * * * * //

ddtSchemes
{
    default         Euler;
}

gradSchemes
{
    default         Gauss linear;
    D               cellLimited leastSquares 1;
    grad(U)         cellLimited leastSquares 1;
    BSD             cellLimited leastSquares 1;
}

divSchemes
{
    default         none;
    div(phi,U)      Gauss limitedLinearV 1;//limitedLinearV 1;
    div(phi,A)      Gauss limitedLinear 1;
    div(phi,c)      Gauss limitedLinear 1;
    div(tau_p)      Gauss linear;
    BSD             Gauss linear;
}

laplacianSchemes
{
    default         Gauss linear corrected;
    BSD             Gauss linear corrected;
}

interpolationSchemes
{
    default         linear;
}

snGradSchemes
{
    default         corrected;
}


// ************************************************************************* //
